Version 4
SHEET 1 2636 1284
WIRE 272 -176 -64 -176
WIRE 608 -176 272 -176
WIRE 928 -176 608 -176
WIRE 272 -128 272 -176
WIRE 400 -128 272 -128
WIRE 608 -128 608 -176
WIRE 736 -128 608 -128
WIRE 928 -128 928 -176
WIRE 1056 -128 928 -128
WIRE 272 -96 272 -128
WIRE 608 -96 608 -128
WIRE 928 -96 928 -128
WIRE 400 -80 400 -128
WIRE 736 -80 736 -128
WIRE 1056 -80 1056 -128
WIRE 272 16 272 -16
WIRE 400 16 400 -16
WIRE 400 16 272 16
WIRE 608 16 608 -16
WIRE 736 16 736 -16
WIRE 736 16 608 16
WIRE 928 16 928 -16
WIRE 1056 16 1056 -16
WIRE 1056 16 928 16
WIRE 272 64 272 16
WIRE 1312 64 272 64
WIRE 1440 64 1392 64
WIRE 1696 64 1440 64
WIRE 1856 64 1776 64
WIRE 2064 64 1936 64
WIRE 2192 64 2144 64
WIRE -64 128 -64 -176
WIRE 608 144 608 16
WIRE 1312 144 608 144
WIRE 1536 144 1392 144
WIRE 1696 144 1536 144
WIRE 1856 144 1776 144
WIRE 2064 144 1936 144
WIRE 2192 144 2192 64
WIRE 2192 144 2144 144
WIRE 2320 144 2192 144
WIRE 2320 192 2320 144
WIRE 928 224 928 16
WIRE 1312 224 928 224
WIRE 1632 224 1392 224
WIRE 1696 224 1632 224
WIRE 1856 224 1776 224
WIRE 2064 224 1936 224
WIRE 2192 224 2192 144
WIRE 2192 224 2144 224
WIRE 1440 272 1440 64
WIRE 1536 272 1536 144
WIRE 1632 272 1632 224
WIRE 272 288 272 64
WIRE 400 288 272 288
WIRE 608 288 608 144
WIRE 736 288 608 288
WIRE 928 288 928 224
WIRE 1056 288 928 288
WIRE 272 320 272 288
WIRE 608 320 608 288
WIRE 928 320 928 288
WIRE 400 336 400 288
WIRE 736 336 736 288
WIRE 1056 336 1056 288
WIRE 1440 416 1440 336
WIRE 1536 416 1536 336
WIRE 1536 416 1440 416
WIRE 1632 416 1632 336
WIRE 1632 416 1536 416
WIRE 272 432 272 400
WIRE 400 432 400 400
WIRE 400 432 272 432
WIRE 608 432 608 400
WIRE 736 432 736 400
WIRE 736 432 608 432
WIRE 928 432 928 400
WIRE 1056 432 1056 400
WIRE 1056 432 928 432
WIRE -64 480 -64 208
WIRE 272 480 272 432
WIRE 272 480 -64 480
WIRE 608 480 608 432
WIRE 608 480 272 480
WIRE 928 480 928 432
WIRE 928 480 608 480
WIRE 1536 480 1536 416
WIRE -64 544 -64 480
WIRE 800 608 784 608
WIRE 960 608 800 608
WIRE 672 624 416 624
WIRE 320 640 304 640
WIRE 800 672 800 608
WIRE 832 672 800 672
WIRE 960 672 896 672
WIRE 800 816 784 816
WIRE 960 816 800 816
WIRE 416 832 416 624
WIRE 672 832 416 832
WIRE 800 864 800 816
WIRE 832 864 800 864
WIRE 960 864 896 864
WIRE 416 960 416 832
WIRE 416 960 320 960
WIRE 800 1024 784 1024
WIRE 960 1024 800 1024
WIRE 416 1040 416 960
WIRE 672 1040 416 1040
WIRE 800 1072 800 1024
WIRE 832 1072 800 1072
WIRE 960 1072 896 1072
FLAG 224 -80 0
FLAG 224 336 0
FLAG 560 -80 0
FLAG 880 -80 0
FLAG 880 336 0
FLAG 560 336 0
FLAG 320 640 a
IOPIN 320 640 Out
FLAG 320 672 b
IOPIN 320 672 Out
FLAG 320 704 c
IOPIN 320 704 Out
FLAG 672 592 a
IOPIN 672 592 In
FLAG 672 800 b
IOPIN 672 800 In
FLAG 672 1008 c
IOPIN 672 1008 In
FLAG 960 608 Vs1
IOPIN 960 608 Out
FLAG 960 816 Vs3
IOPIN 960 816 Out
FLAG 960 1024 Vs5
IOPIN 960 1024 Out
FLAG 960 672 Vs2
IOPIN 960 672 Out
FLAG 960 864 Vs4
IOPIN 960 864 Out
FLAG 960 1072 Vs6
IOPIN 960 1072 Out
FLAG 224 -32 Vs1
IOPIN 224 -32 In
FLAG 560 -32 Vs3
IOPIN 560 -32 In
FLAG 560 384 Vs4
IOPIN 560 384 In
FLAG 880 -32 Vs5
IOPIN 880 -32 In
FLAG 880 384 Vs6
IOPIN 880 384 In
FLAG 224 384 Vs2
IOPIN 224 384 In
FLAG -64 544 0
FLAG 2320 192 0
FLAG 1408 800 angle
IOPIN 1408 800 Out
FLAG 1936 752 a
IOPIN 1936 752 In
FLAG 1936 784 b
IOPIN 1936 784 In
FLAG 1936 816 c
IOPIN 1936 816 In
FLAG 1280 768 a
IOPIN 1280 768 In
FLAG 1280 800 b
IOPIN 1280 800 In
FLAG 1280 832 c
IOPIN 1280 832 In
FLAG 2000 848 angle
IOPIN 2000 848 In
FLAG 2064 752 vd
IOPIN 2064 752 Out
FLAG 2064 784 vq
IOPIN 2064 784 Out
FLAG 2064 816 v0
IOPIN 2064 816 Out
FLAG 1536 480 0
SYMBOL voltage -64 112 R0
WINDOW 123 0 0 Left 0
WINDOW 39 0 0 Left 0
SYMATTR InstName V1
SYMATTR Value {Vdc}
SYMBOL sw 272 -112 R0
SYMATTR InstName S1
SYMATTR Value S1
SYMBOL sw 272 304 R0
SYMATTR InstName S2
SYMATTR Value S2
SYMBOL sw 608 -112 R0
SYMATTR InstName S3
SYMATTR Value S3
SYMBOL sw 608 304 R0
SYMATTR InstName S4
SYMATTR Value S4
SYMBOL sw 928 -112 R0
SYMATTR InstName S5
SYMATTR Value S5
SYMBOL sw 928 304 R0
SYMATTR InstName S6
SYMATTR Value S6
SYMBOL diode 416 -16 R180
WINDOW 0 24 64 Left 2
WINDOW 3 24 0 Left 2
SYMATTR InstName D1
SYMBOL diode 416 400 R180
WINDOW 0 24 64 Left 2
WINDOW 3 24 0 Left 2
SYMATTR InstName D2
SYMBOL diode 752 -16 R180
WINDOW 0 24 64 Left 2
WINDOW 3 24 0 Left 2
SYMATTR InstName D3
SYMBOL diode 752 400 R180
WINDOW 0 24 64 Left 2
WINDOW 3 24 0 Left 2
SYMATTR InstName D4
SYMBOL diode 1072 -16 R180
WINDOW 0 24 64 Left 2
WINDOW 3 24 0 Left 2
SYMATTR InstName D5
SYMBOL diode 1072 400 R180
WINDOW 0 24 64 Left 2
WINDOW 3 24 0 Left 2
SYMATTR InstName D6
SYMBOL ac3phase 256 672 R0
SYMATTR InstName U1
SYMATTR Value V={V}
SYMBOL carriertriangle 272 960 R0
SYMATTR Value Vc={Vcarrier}
SYMATTR Value2 Tc={T}
SYMATTR InstName U2
SYMBOL compare 720 608 R0
SYMATTR InstName U3
SYMATTR Value Von=1
SYMBOL compare 720 816 R0
SYMATTR InstName U4
SYMATTR Value Von=1
SYMBOL compare 720 1024 R0
SYMATTR InstName U5
SYMATTR Value Von=1
SYMBOL Digital\\inv 832 608 R0
SYMATTR InstName A1
SYMBOL Digital\\inv 832 800 R0
SYMATTR InstName A2
SYMBOL Digital\\inv 832 1008 R0
SYMATTR InstName A3
SYMBOL res 1792 48 R90
WINDOW 0 0 56 VBottom 2
WINDOW 3 32 56 VTop 2
SYMATTR InstName R1
SYMATTR Value 1
SYMBOL res 1792 128 R90
WINDOW 0 0 56 VBottom 2
WINDOW 3 32 56 VTop 2
SYMATTR InstName R2
SYMATTR Value 1
SYMBOL res 1792 208 R90
WINDOW 0 0 56 VBottom 2
WINDOW 3 32 56 VTop 2
SYMATTR InstName R3
SYMATTR Value 1
SYMBOL voltage 2160 64 R90
WINDOW 0 -32 56 VBottom 2
WINDOW 3 437 -214 VTop 2
WINDOW 123 0 0 Left 0
WINDOW 39 0 0 Left 0
SYMATTR InstName V2
SYMATTR Value SINE(0 {V} 50)
SYMBOL voltage 2160 144 R90
WINDOW 0 -32 56 VBottom 2
WINDOW 3 402 -271 VTop 2
WINDOW 123 0 0 Left 0
WINDOW 39 0 0 Left 0
SYMATTR InstName V3
SYMATTR Value SINE(0 {V} 50 0 0 -120)
SYMBOL voltage 2160 224 R90
WINDOW 0 -32 56 VBottom 2
WINDOW 3 359 -268 VTop 2
WINDOW 123 0 0 Left 0
WINDOW 39 0 0 Left 0
SYMATTR InstName V4
SYMATTR Value SINE(0 {V} 50 0 0 120)
SYMBOL ind 1840 80 R270
WINDOW 0 32 56 VTop 2
WINDOW 3 5 56 VBottom 2
SYMATTR InstName L1
SYMATTR Value 10m
SYMBOL ind 1840 160 R270
WINDOW 0 32 56 VTop 2
WINDOW 3 5 56 VBottom 2
SYMATTR InstName L2
SYMATTR Value 10m
SYMBOL ind 1840 240 R270
WINDOW 0 32 56 VTop 2
WINDOW 3 5 56 VBottom 2
SYMATTR InstName L3
SYMATTR Value 10m
SYMBOL PLL 1344 800 R0
SYMATTR InstName U6
SYMBOL park 2000 784 R0
SYMATTR InstName U8
SYMBOL ind 1296 80 R270
WINDOW 0 32 56 VTop 2
WINDOW 3 -439 -105 VBottom 2
SYMATTR InstName L4
SYMATTR Value {Lf}
SYMBOL ind 1296 160 R270
WINDOW 0 32 56 VTop 2
WINDOW 3 -358 -34 VBottom 2
SYMATTR InstName L5
SYMATTR Value {Lf}
SYMBOL ind 1296 240 R270
WINDOW 0 32 56 VTop 2
WINDOW 3 -281 40 VBottom 2
SYMATTR InstName L6
SYMATTR Value {Lf}
SYMBOL cap 1424 272 R0
SYMATTR InstName C1
SYMATTR Value {Cf}
SYMBOL cap 1520 272 R0
SYMATTR InstName C2
SYMATTR Value {Cf}
SYMBOL cap 1616 272 R0
SYMATTR InstName C3
SYMATTR Value {Cf}
TEXT 1608 984 Left 2 !.tran 1000m
TEXT 1608 1016 Left 2 !.include parameter.txt
